
#======================================================================
# CRYSTAL DATA
#----------------------------------------------------------------------
data_VESTA_phase_1

_chemical_name_common                  'Converted by xsd2pos.py               '
_cell_length_a                         11.103840
_cell_length_b                         11.200238
_cell_length_c                         32.434643
_cell_angle_alpha                      90.000000
_cell_angle_beta                       90.000000
_cell_angle_gamma                      90.000000
_cell_volume                           4033.755493
_space_group_name_H-M_alt              'P 1'
_space_group_IT_number                 1

loop_
_space_group_symop_operation_xyz
   'x, y, z'

loop_
   _atom_site_label
   _atom_site_occupancy
   _atom_site_fract_x
   _atom_site_fract_y
   _atom_site_fract_z
   _atom_site_adp_type
   _atom_site_U_iso_or_equiv
   _atom_site_type_symbol
   Mn1        1.0     0.001919     0.997793     0.479224    Uiso  ? Mn
   Mn2        1.0     0.254986     0.247277     0.479357    Uiso  ? Mn
   Mn3        1.0     0.250000     0.250000     0.111913    Uiso  ? Mn
   Mn4        1.0     0.000000     0.000000     0.111913    Uiso  ? Mn
   Mn5        1.0     0.000000     0.000000     0.233518    Uiso  ? Mn
   Mn6        1.0     0.250000     0.250000     0.233518    Uiso  ? Mn
   Mn7        1.0     0.251175     0.250696     0.356208    Uiso  ? Mn
   Mn8        1.0     0.004712     0.001619     0.355712    Uiso  ? Mn
   Mn9        1.0     0.002173     0.498067     0.478522    Uiso  ? Mn
   Mn10       1.0     0.252559     0.750287     0.478725    Uiso  ? Mn
   Mn11       1.0     0.250000     0.750000     0.111913    Uiso  ? Mn
   Mn12       1.0     0.000000     0.500000     0.111913    Uiso  ? Mn
   Mn13       1.0     0.000000     0.500000     0.233518    Uiso  ? Mn
   Mn14       1.0     0.250000     0.750000     0.233518    Uiso  ? Mn
   Mn15       1.0     0.249299     0.752943     0.355764    Uiso  ? Mn
   Mn16       1.0     0.004532     0.501605     0.355915    Uiso  ? Mn
   Mn17       1.0     0.502497     0.997559     0.478862    Uiso  ? Mn
   Mn18       1.0     0.757333     0.245744     0.478465    Uiso  ? Mn
   Mn19       1.0     0.750000     0.250000     0.111913    Uiso  ? Mn
   Mn20       1.0     0.500000     0.000000     0.111913    Uiso  ? Mn
   Mn21       1.0     0.500000     0.000000     0.233518    Uiso  ? Mn
   Mn22       1.0     0.750000     0.250000     0.233518    Uiso  ? Mn
   Mn23       1.0     0.751292     0.247688     0.356089    Uiso  ? Mn
   Mn24       1.0     0.504211     0.001260     0.355926    Uiso  ? Mn
   Mn25       1.0     0.504227     0.497631     0.483047    Uiso  ? Mn
   Mn26       1.0     0.754771     0.747561     0.478560    Uiso  ? Mn
   Mn27       1.0     0.750000     0.750000     0.111913    Uiso  ? Mn
   Mn28       1.0     0.500000     0.500000     0.111913    Uiso  ? Mn
   Mn29       1.0     0.500000     0.500000     0.233518    Uiso  ? Mn
   Mn30       1.0     0.750000     0.750000     0.233518    Uiso  ? Mn
   Mn31       1.0     0.748705     0.750517     0.355788    Uiso  ? Mn
   Mn32       1.0     0.505741     0.500507     0.357275    Uiso  ? Mn
   O1         1.0     0.142234     0.107080     0.121605    Uiso  ? O
   O2         1.0     0.357767     0.392920     0.102221    Uiso  ? O
   O3         1.0     0.392233     0.142919     0.102221    Uiso  ? O
   O4         1.0     0.107767     0.357080     0.121605    Uiso  ? O
   O5         1.0     0.107767     0.357080     0.223827    Uiso  ? O
   O6         1.0     0.142234     0.107080     0.223827    Uiso  ? O
   O7         1.0     0.463096     0.007781     0.172716    Uiso  ? O
   O8         1.0     0.036904     0.492219     0.051111    Uiso  ? O
   O9         1.0     0.213096     0.242219     0.051111    Uiso  ? O
   O10        1.0     0.286904     0.257781     0.172716    Uiso  ? O
   O11        1.0     0.155993     0.107837     0.362659    Uiso  ? O
   O12        1.0     0.359536     0.393984     0.346149    Uiso  ? O
   O13        1.0     0.390977     0.148289     0.344891    Uiso  ? O
   O14        1.0     0.109293     0.348704     0.362387    Uiso  ? O
   O15        1.0     0.129928     0.374892     0.470426    Uiso  ? O
   O16        1.0     0.392233     0.142919     0.243210    Uiso  ? O
   O17        1.0     0.357767     0.392920     0.243210    Uiso  ? O
   O18        1.0     0.127760     0.124250     0.470767    Uiso  ? O
   O19        1.0     0.477445     0.004368     0.412809    Uiso  ? O
   O20        1.0     0.035304     0.492789     0.294860    Uiso  ? O
   O21        1.0     0.214679     0.242785     0.294861    Uiso  ? O
   O22        1.0     0.278695     0.254171     0.413253    Uiso  ? O
   O23        1.0     0.142234     0.607081     0.121605    Uiso  ? O
   O24        1.0     0.357767     0.892919     0.102221    Uiso  ? O
   O25        1.0     0.392233     0.642919     0.102221    Uiso  ? O
   O26        1.0     0.107767     0.857081     0.121605    Uiso  ? O
   O27        1.0     0.107767     0.857081     0.223827    Uiso  ? O
   O28        1.0     0.142234     0.607081     0.223827    Uiso  ? O
   O29        1.0     0.463096     0.507781     0.172716    Uiso  ? O
   O30        1.0     0.036904     0.992219     0.051111    Uiso  ? O
   O31        1.0     0.213096     0.742219     0.051111    Uiso  ? O
   O32        1.0     0.286904     0.757781     0.172716    Uiso  ? O
   O33        1.0     0.154572     0.607681     0.362821    Uiso  ? O
   O34        1.0     0.353084     0.891704     0.344771    Uiso  ? O
   O35        1.0     0.388243     0.651476     0.346303    Uiso  ? O
   O36        1.0     0.103296     0.849367     0.361468    Uiso  ? O
   O37        1.0     0.127508     0.876224     0.470664    Uiso  ? O
   O38        1.0     0.392233     0.642919     0.243210    Uiso  ? O
   O39        1.0     0.357767     0.892919     0.243210    Uiso  ? O
   O40        1.0     0.125609     0.625367     0.470075    Uiso  ? O
   O41        1.0     0.481681     0.500385     0.416312    Uiso  ? O
   O42        1.0     0.035304     0.992790     0.294864    Uiso  ? O
   O43        1.0     0.214678     0.742794     0.294863    Uiso  ? O
   O44        1.0     0.274476     0.765023     0.412462    Uiso  ? O
   O45        1.0     0.642233     0.107080     0.121605    Uiso  ? O
   O46        1.0     0.857767     0.392920     0.102221    Uiso  ? O
   O47        1.0     0.892233     0.142919     0.102221    Uiso  ? O
   O48        1.0     0.607767     0.357080     0.121605    Uiso  ? O
   O49        1.0     0.607767     0.357080     0.223827    Uiso  ? O
   O50        1.0     0.642233     0.107080     0.223827    Uiso  ? O
   O51        1.0     0.963096     0.007781     0.172716    Uiso  ? O
   O52        1.0     0.536904     0.492219     0.051111    Uiso  ? O
   O53        1.0     0.713096     0.242219     0.051111    Uiso  ? O
   O54        1.0     0.786904     0.257781     0.172716    Uiso  ? O
   O55        1.0     0.656882     0.102439     0.362354    Uiso  ? O
   O56        1.0     0.856123     0.387470     0.345056    Uiso  ? O
   O57        1.0     0.892708     0.142967     0.344174    Uiso  ? O
   O58        1.0     0.611133     0.344069     0.363402    Uiso  ? O
   O59        1.0     0.637556     0.365501     0.468515    Uiso  ? O
   O60        1.0     0.892233     0.142919     0.243210    Uiso  ? O
   O61        1.0     0.857767     0.392920     0.243210    Uiso  ? O
   O62        1.0     0.628308     0.121210     0.470167    Uiso  ? O
   O63        1.0     0.979286     0.005679     0.412731    Uiso  ? O
   O64        1.0     0.535322     0.492787     0.294862    Uiso  ? O
   O65        1.0     0.714697     0.242785     0.294862    Uiso  ? O
   O66        1.0     0.785152     0.246277     0.412675    Uiso  ? O
   O67        1.0     0.642233     0.607081     0.121605    Uiso  ? O
   O68        1.0     0.857767     0.892919     0.102221    Uiso  ? O
   O69        1.0     0.892233     0.642919     0.102221    Uiso  ? O
   O70        1.0     0.607767     0.857081     0.121605    Uiso  ? O
   O71        1.0     0.607767     0.857081     0.223827    Uiso  ? O
   O72        1.0     0.642233     0.607081     0.223827    Uiso  ? O
   O73        1.0     0.963096     0.507781     0.172716    Uiso  ? O
   O74        1.0     0.536904     0.992219     0.051111    Uiso  ? O
   O75        1.0     0.713096     0.742219     0.051111    Uiso  ? O
   O76        1.0     0.786904     0.757781     0.172716    Uiso  ? O
   O77        1.0     0.653215     0.601335     0.362955    Uiso  ? O
   O78        1.0     0.850543     0.887132     0.345076    Uiso  ? O
   O79        1.0     0.887969     0.646394     0.344613    Uiso  ? O
   O80        1.0     0.605314     0.845179     0.362300    Uiso  ? O
   O81        1.0     0.628859     0.874513     0.469883    Uiso  ? O
   O82        1.0     0.892233     0.642919     0.243210    Uiso  ? O
   O83        1.0     0.857767     0.892919     0.243210    Uiso  ? O
   O84        1.0     0.632033     0.627902     0.469265    Uiso  ? O
   O85        1.0     0.978434     0.504918     0.412656    Uiso  ? O
   O86        1.0     0.535320     0.992787     0.294865    Uiso  ? O
   O87        1.0     0.714696     0.742792     0.294864    Uiso  ? O
   O88        1.0     0.780240     0.756322     0.412514    Uiso  ? O
   O89        1.0     0.878006     0.118190     0.477718    Uiso  ? O
   O90        1.0     0.882099     0.870914     0.476346    Uiso  ? O
   O91        1.0     0.375645     0.119897     0.476998    Uiso  ? O
   O92        1.0     0.377640     0.366539     0.476768    Uiso  ? O
   O93        1.0     0.876827     0.620330     0.476016    Uiso  ? O
   O94        1.0     0.884997     0.369561     0.475688    Uiso  ? O
   O95        1.0     0.367475     0.628900     0.472586    Uiso  ? O
   O96        1.0     0.380287     0.872846     0.476914    Uiso  ? O
   O97        1.0     0.516124     0.497471     0.539752    Uiso  ? O
   La1        1.0     0.253773     0.018327     0.051111    Uiso  ? La
   La2        1.0     0.246227     0.481673     0.172716    Uiso  ? La
   La3        1.0     0.003773     0.231673     0.172716    Uiso  ? La
   La4        1.0     0.496227     0.268327     0.051111    Uiso  ? La
   La5        1.0     0.253056     0.018298     0.297399    Uiso  ? La
   La6        1.0     0.257341     0.497160     0.424735    Uiso  ? La
   La7        1.0     0.004797     0.246299     0.423788    Uiso  ? La
   La8        1.0     0.496941     0.268294     0.297400    Uiso  ? La
   La9        1.0     0.253773     0.518327     0.051111    Uiso  ? La
   La10       1.0     0.246227     0.981673     0.172716    Uiso  ? La
   La11       1.0     0.003773     0.731673     0.172716    Uiso  ? La
   La12       1.0     0.496227     0.768327     0.051111    Uiso  ? La
   La13       1.0     0.253057     0.518301     0.297396    Uiso  ? La
   La14       1.0     0.255427     0.998006     0.424158    Uiso  ? La
   La15       1.0     0.002052     0.747440     0.423757    Uiso  ? La
   La16       1.0     0.496941     0.768302     0.297400    Uiso  ? La
   La17       1.0     0.753773     0.018327     0.051111    Uiso  ? La
   La18       1.0     0.746227     0.481673     0.172716    Uiso  ? La
   La19       1.0     0.503773     0.231673     0.172716    Uiso  ? La
   La20       1.0     0.996227     0.268327     0.051111    Uiso  ? La
   La21       1.0     0.753072     0.018302     0.297403    Uiso  ? La
   La22       1.0     0.754805     0.495326     0.424416    Uiso  ? La
   La23       1.0     0.502328     0.247874     0.424963    Uiso  ? La
   La24       1.0     0.996931     0.268297     0.297398    Uiso  ? La
   La25       1.0     0.753773     0.518327     0.051111    Uiso  ? La
   La26       1.0     0.746227     0.981673     0.172716    Uiso  ? La
   La27       1.0     0.503773     0.731673     0.172716    Uiso  ? La
   La28       1.0     0.996227     0.768327     0.051111    Uiso  ? La
   La29       1.0     0.753074     0.518304     0.297399    Uiso  ? La
   La30       1.0     0.756811     0.996757     0.423858    Uiso  ? La
   La31       1.0     0.499418     0.746613     0.424739    Uiso  ? La
   La32       1.0     0.996931     0.768305     0.297399    Uiso  ? La
   H1         1.0     0.465598     0.433034     0.550280    Uiso  ? H
