
#======================================================================
# CRYSTAL DATA
#----------------------------------------------------------------------
data_VESTA_phase_1

_chemical_name_common                  'cif2pos.py                            '
_cell_length_a                         5.600119
_cell_length_b                         7.888443
_cell_length_c                         5.551920
_cell_angle_alpha                      90.000000
_cell_angle_beta                       90.000000
_cell_angle_gamma                      90.000000
_cell_volume                           245.262824
_space_group_name_H-M_alt              'P 1'
_space_group_IT_number                 1

loop_
_space_group_symop_operation_xyz
   'x, y, z'

loop_
   _atom_site_label
   _atom_site_occupancy
   _atom_site_fract_x
   _atom_site_fract_y
   _atom_site_fract_z
   _atom_site_adp_type
   _atom_site_U_iso_or_equiv
   _atom_site_type_symbol
   Mn1        1.0     0.000000     0.000000     0.000000    Uiso  ? Mn
   Mn2        1.0     0.500000     0.000000     0.500000    Uiso  ? Mn
   Mn3        1.0     0.500000     0.500000     0.500000    Uiso  ? Mn
   Mn4        1.0     0.000000     0.500000     0.000000    Uiso  ? Mn
   O1         1.0     0.214161     0.539850     0.284467    Uiso  ? O
   O2         1.0     0.785839     0.460150     0.715533    Uiso  ? O
   O3         1.0     0.285839     0.460150     0.784467    Uiso  ? O
   O4         1.0     0.714161     0.539850     0.215533    Uiso  ? O
   O5         1.0     0.714161     0.960150     0.215533    Uiso  ? O
   O6         1.0     0.285839     0.039850     0.784467    Uiso  ? O
   O7         1.0     0.785839     0.039850     0.715533    Uiso  ? O
   O8         1.0     0.214161     0.960150     0.284467    Uiso  ? O
   O9         1.0     0.015562     0.750000     0.926193    Uiso  ? O
   O10        1.0     0.984438     0.250000     0.073807    Uiso  ? O
   O11        1.0     0.484438     0.250000     0.426193    Uiso  ? O
   O12        1.0     0.515562     0.750000     0.573807    Uiso  ? O
   La1        1.0     0.036654     0.250000     0.507546    Uiso  ? La
   La2        1.0     0.963346     0.750000     0.492454    Uiso  ? La
   La3        1.0     0.463346     0.750000     0.007546    Uiso  ? La
   La4        1.0     0.536654     0.250000     0.992454    Uiso  ? La
